Version 4
SHEET 1 1496 680
WIRE 240 64 0 64
WIRE -48 80 -160 80
WIRE -160 128 -160 80
WIRE -48 128 -48 80
WIRE 0 128 0 64
WIRE 144 128 96 128
WIRE 240 128 240 64
WIRE 240 128 208 128
WIRE 272 128 240 128
WIRE 368 128 336 128
WIRE 416 128 368 128
WIRE 528 128 416 128
WIRE 816 128 528 128
WIRE 944 128 816 128
WIRE 1200 128 1104 128
WIRE 1328 128 1200 128
WIRE 1440 128 1328 128
WIRE 416 144 416 128
WIRE 528 144 528 128
WIRE 816 144 816 128
WIRE 1200 144 1200 128
WIRE 1328 160 1328 128
WIRE 96 176 96 128
WIRE 96 176 48 176
WIRE 1440 192 1440 128
WIRE 96 224 96 176
WIRE 144 224 96 224
WIRE 240 224 208 224
WIRE 272 224 240 224
WIRE 368 224 368 128
WIRE 368 224 336 224
WIRE 416 224 416 208
WIRE 528 224 416 224
WIRE 816 224 816 208
WIRE 816 224 528 224
WIRE 1024 256 1024 224
WIRE 1200 256 1200 224
WIRE 1200 256 1024 256
WIRE -160 272 -160 208
WIRE -48 272 -48 208
WIRE -48 272 -160 272
WIRE 0 304 0 208
WIRE 240 304 240 224
WIRE 240 304 0 304
WIRE 1024 304 1024 256
WIRE 48 336 48 176
WIRE 272 336 48 336
WIRE 416 336 416 224
WIRE 416 336 272 336
WIRE 816 384 816 224
WIRE 1024 384 816 384
WIRE 1328 384 1328 224
WIRE 1328 384 1024 384
WIRE 1440 384 1440 272
WIRE 1440 384 1328 384
FLAG 272 336 0
DATAFLAG 1440 160 ""
DATAFLAG 1392 128 ""
SYMBOL diode 144 144 R270
WINDOW 0 32 32 VTop 2
WINDOW 3 0 32 VBottom 2
SYMATTR InstName D1
SYMATTR Value 1N4148
SYMBOL diode 144 240 R270
WINDOW 0 32 32 VTop 2
WINDOW 3 0 32 VBottom 2
SYMATTR InstName D2
SYMATTR Value 1N4148
SYMBOL diode 272 144 R270
WINDOW 0 32 32 VTop 2
WINDOW 3 0 32 VBottom 2
SYMATTR InstName D3
SYMATTR Value 1N4148
SYMBOL diode 272 240 R270
WINDOW 0 32 32 VTop 2
WINDOW 3 0 32 VBottom 2
SYMATTR InstName D4
SYMATTR Value 1N4148
SYMBOL ind2 -64 112 R0
WINDOW 0 -17 5 Left 2
WINDOW 3 -31 30 Left 2
SYMATTR InstName L1
SYMATTR Value 1m
SYMATTR Type ind
SYMBOL ind2 16 224 R180
WINDOW 0 -19 109 Left 2
WINDOW 3 -74 89 Left 2
SYMATTR InstName L2
SYMATTR Value 0.0057m
SYMATTR Type ind
SYMBOL voltage -160 112 R0
WINDOW 3 -232 62 Left 2
WINDOW 123 0 0 Left 0
WINDOW 39 -232 90 Left 2
SYMATTR Value SINE(0 311 50)
SYMATTR SpiceLine Rser=50m
SYMATTR InstName V1
SYMBOL cap 400 144 R0
SYMATTR InstName C1
SYMATTR Value 500µF
SYMBOL PowerProducts\\LM317 1024 160 R0
SYMATTR InstName U1
SYMBOL cap 800 144 R0
SYMATTR InstName C2
SYMATTR Value 0.1µF
SYMBOL res 1008 288 R0
SYMATTR InstName R2
SYMATTR Value 1420
SYMBOL res 1184 128 R0
SYMATTR InstName R3
SYMATTR Value 100
SYMBOL cap 1312 160 R0
SYMATTR InstName C3
SYMATTR Value 1µF
SYMBOL res 1424 176 R0
SYMATTR InstName R4
SYMATTR Value 1k
SYMBOL res 512 128 R0
SYMATTR InstName R1
SYMATTR Value 1k
TEXT -80 232 Left 2 !K L1 L2 1
TEXT -176 344 Left 2 !.tran 50ms
